*SPEF "IEEE 1481-1998"
*DESIGN "Lab1_FIR_DUT"
*DATE "Sun Oct 31 15:25:28 2021"
*VENDOR "Cadence Design Systems, Inc."
*PROGRAM "Innovus"
*VERSION "17.11-s080_1"
*DESIGN_FLOW "COUPLING C" "PIN_CAP NONE" "NAME_SCOPE LOCAL"
*DIVIDER /
*DELIMITER :
*BUS_DELIMITER []
*T_UNIT 1 NS
*C_UNIT 1 PF
*R_UNIT 1 OHM
*L_UNIT 1 HENRY

// MMMC spef file for corner 'my_rc'

*NAME_MAP

*1 DIN[9]
*2 DIN[8]
*3 DIN[7]
*4 DIN[6]
*5 DIN[5]
*6 DIN[4]
*7 DIN[3]
*8 DIN[2]
*9 DIN[1]
*10 DIN[0]
*11 b0[9]
*12 b0[8]
*13 b0[7]
*14 b0[6]
*15 b0[5]
*16 b0[4]
*17 b0[3]
*18 b0[2]
*19 b0[1]
*20 b0[0]
*21 b1[9]
*22 b1[8]
*23 b1[7]
*24 b1[6]
*25 b1[5]
*26 b1[4]
*27 b1[3]
*28 b1[2]
*29 b1[1]
*30 b1[0]
*31 b2[9]
*32 b2[8]
*33 b2[7]
*34 b2[6]
*35 b2[5]
*36 b2[4]
*37 b2[3]
*38 b2[2]
*39 b2[1]
*40 b2[0]
*41 b3[9]
*42 b3[8]
*43 b3[7]
*44 b3[6]
*45 b3[5]
*46 b3[4]
*47 b3[3]
*48 b3[2]
*49 b3[1]
*50 b3[0]
*51 b4[9]
*52 b4[8]
*53 b4[7]
*54 b4[6]
*55 b4[5]
*56 b4[4]
*57 b4[3]
*58 b4[2]
*59 b4[1]
*60 b4[0]
*61 b5[9]
*62 b5[8]
*63 b5[7]
*64 b5[6]
*65 b5[5]
*66 b5[4]
*67 b5[3]
*68 b5[2]
*69 b5[1]
*70 b5[0]
*71 b6[9]
*72 b6[8]
*73 b6[7]
*74 b6[6]
*75 b6[5]
*76 b6[4]
*77 b6[3]
*78 b6[2]
*79 b6[1]
*80 b6[0]
*81 b7[9]
*82 b7[8]
*83 b7[7]
*84 b7[6]
*85 b7[5]
*86 b7[4]
*87 b7[3]
*88 b7[2]
*89 b7[1]
*90 b7[0]
*91 b8[9]
*92 b8[8]
*93 b8[7]
*94 b8[6]
*95 b8[5]
*96 b8[4]
*97 b8[3]
*98 b8[2]
*99 b8[1]
*100 b8[0]
*101 b9[9]
*102 b9[8]
*103 b9[7]
*104 b9[6]
*105 b9[5]
*106 b9[4]
*107 b9[3]
*108 b9[2]
*109 b9[1]
*110 b9[0]
*111 b10[9]
*112 b10[8]
*113 b10[7]
*114 b10[6]
*115 b10[5]
*116 b10[4]
*117 b10[3]
*118 b10[2]
*119 b10[1]
*120 b10[0]
*121 VIN
*122 RSTn
*123 CLK
*124 DOUT[9]
*125 DOUT[8]
*126 DOUT[7]
*127 DOUT[6]
*128 DOUT[5]
*129 DOUT[4]
*130 DOUT[3]
*131 DOUT[2]
*132 DOUT[1]
*133 DOUT[0]
*134 VOUT
*135 FE_OFN4_RSTn
*136 FE_OFN3_RSTn
*137 FE_OFN2_VIN
*138 FE_OFN1_VIN
*139 FE_OFN0_VIN
*140 w_ADD_10__6_
*141 w_ADD_10__5_
*142 w_ADD_10__4_
*143 w_ADD_10__3_
*144 w_ADD_10__2_
*145 w_ADD_10__1_
*146 w_ADD_10__0_
*147 w_MULT_9__9_
*148 w_MULT_9__8_
*149 w_MULT_9__7_
*150 w_MULT_9__6_
*151 w_MULT_9__5_
*152 w_MULT_9__4_
*153 w_MULT_9__3_
*154 w_MULT_8__9_
*155 w_MULT_8__8_
*156 w_MULT_8__7_
*157 w_MULT_8__6_
*158 w_MULT_8__5_
*159 w_MULT_8__4_
*160 w_MULT_8__3_
*161 w_MULT_7__9_
*162 w_MULT_7__8_
*163 w_MULT_7__7_
*164 w_MULT_7__6_
*165 w_MULT_7__5_
*166 w_MULT_7__4_
*167 w_MULT_7__3_
*168 w_MULT_6__9_
*169 w_MULT_6__8_
*170 w_MULT_6__7_
*171 w_MULT_6__6_
*172 w_MULT_6__5_
*173 w_MULT_6__4_
*174 w_MULT_6__3_
*175 w_MULT_5__9_
*176 w_MULT_5__8_
*177 w_MULT_5__7_
*178 w_MULT_5__6_
*179 w_MULT_5__5_
*180 w_MULT_5__4_
*181 w_MULT_5__3_
*182 w_MULT_4__9_
*183 w_MULT_4__8_
*184 w_MULT_4__7_
*185 w_MULT_4__6_
*186 w_MULT_4__5_
*187 w_MULT_4__4_
*188 w_MULT_4__3_
*189 w_MULT_3__9_
*190 w_MULT_3__8_
*191 w_MULT_3__7_
*192 w_MULT_3__6_
*193 w_MULT_3__5_
*194 w_MULT_3__4_
*195 w_MULT_3__3_
*196 w_MULT_2__9_
*197 w_MULT_2__8_
*198 w_MULT_2__7_
*199 w_MULT_2__6_
*200 w_MULT_2__5_
*201 w_MULT_2__4_
*202 w_MULT_2__3_
*203 w_MULT_1__9_
*204 w_MULT_1__8_
*205 w_MULT_1__7_
*206 w_MULT_1__6_
*207 w_MULT_1__5_
*208 w_MULT_1__4_
*209 w_MULT_1__3_
*210 w_MULT_10__9_
*211 w_MULT_10__8_
*212 w_MULT_10__7_
*213 w_MULT_10__6_
*214 w_MULT_10__5_
*215 w_MULT_10__4_
*216 w_MULT_10__3_
*217 w_MULT_0__9_
*218 w_MULT_0__8_
*219 w_MULT_0__7_
*220 w_MULT_0__6_
*221 w_MULT_0__5_
*222 w_MULT_0__4_
*223 w_MULT_0__3_
*224 w_ADD_9__6_
*225 w_ADD_9__5_
*226 w_ADD_9__4_
*227 w_ADD_9__3_
*228 w_ADD_9__2_
*229 w_ADD_9__1_
*230 w_ADD_9__0_
*231 w_ADD_8__6_
*232 w_ADD_8__5_
*233 w_ADD_8__4_
*234 w_ADD_8__3_
*235 w_ADD_8__2_
*236 w_ADD_8__1_
*237 w_ADD_8__0_
*238 w_ADD_7__6_
*239 w_ADD_7__5_
*240 w_ADD_7__4_
*241 w_ADD_7__3_
*242 w_ADD_7__2_
*243 w_ADD_7__1_
*244 w_ADD_7__0_
*245 w_ADD_6__6_
*246 w_ADD_6__5_
*247 w_ADD_6__4_
*248 w_ADD_6__3_
*249 w_ADD_6__2_
*250 w_ADD_6__1_
*251 w_ADD_6__0_
*252 w_ADD_5__6_
*253 w_ADD_5__5_
*254 w_ADD_5__4_
*255 w_ADD_5__3_
*256 w_ADD_5__2_
*257 w_ADD_5__1_
*258 w_ADD_5__0_
*259 w_ADD_4__6_
*260 w_ADD_4__5_
*261 w_ADD_4__4_
*262 w_ADD_4__3_
*263 w_ADD_4__2_
*264 w_ADD_4__1_
*265 w_ADD_4__0_
*266 w_ADD_3__6_
*267 w_ADD_3__5_
*268 w_ADD_3__4_
*269 w_ADD_3__3_
*270 w_ADD_3__2_
*271 w_ADD_3__1_
*272 w_ADD_3__0_
*273 w_ADD_2__6_
*274 w_ADD_2__5_
*275 w_ADD_2__4_
*276 w_ADD_2__3_
*277 w_ADD_2__2_
*278 w_ADD_2__1_
*279 w_ADD_2__0_
*280 w_ADD_1__6_
*281 w_ADD_1__5_
*282 w_ADD_1__4_
*283 w_ADD_1__3_
*284 w_ADD_1__2_
*285 w_ADD_1__1_
*286 w_ADD_1__0_
*287 REGin_n30
*288 REGin_n29
*289 REGin_n28
*290 REGin_n27
*291 REGin_n26
*292 REGin_n25
*293 REGin_n24
*294 REGin_n23
*295 REGin_n22
*296 REGin_n21
*297 REGin_n20
*298 REGin_n19
*299 REGin_n18
*300 REGin_n17
*301 REGin_n16
*302 REGin_n15
*303 REGin_n14
*304 REGin_n13
*305 REGin_n12
*306 REGin_n11
*307 REGin_n10
*308 REGin_n9
*309 REGin_n8
*310 REGin_n7
*311 REGin_n6
*312 REGin_n5
*313 REGin_n4
*314 REGin_n3
*315 REGin_n2
*316 REGin_n1
*317 REGi_1_n62
*318 REGi_1_n61
*319 REGi_1_n60
*320 REGi_1_n59
*321 REGi_1_n58
*322 REGi_1_n57
*323 REGi_1_n56
*324 REGi_1_n55
*325 REGi_1_n54
*326 REGi_1_n53
*327 REGi_1_n52
*328 REGi_1_n51
*329 REGi_1_n50
*330 REGi_1_n49
*331 REGi_1_n48
*332 REGi_1_n47
*333 REGi_1_n46
*334 REGi_1_n45
*335 REGi_1_n44
*336 REGi_1_n43
*337 REGi_1_n42
*338 REGi_1_n41
*339 REGi_1_n40
*340 REGi_1_n39
*341 REGi_1_n38
*342 REGi_1_n37
*343 REGi_1_n36
*344 REGi_1_n35
*345 REGi_1_n34
*346 REGi_1_n33
*347 REGi_2_n62
*348 REGi_2_n61
*349 REGi_2_n60
*350 REGi_2_n59
*351 REGi_2_n58
*352 REGi_2_n57
*353 REGi_2_n56
*354 REGi_2_n55
*355 REGi_2_n54
*356 REGi_2_n53
*357 REGi_2_n52
*358 REGi_2_n51
*359 REGi_2_n50
*360 REGi_2_n49
*361 REGi_2_n48
*362 REGi_2_n47
*363 REGi_2_n46
*364 REGi_2_n45
*365 REGi_2_n44
*366 REGi_2_n43
*367 REGi_2_n42
*368 REGi_2_n41
*369 REGi_2_n40
*370 REGi_2_n39
*371 REGi_2_n38
*372 REGi_2_n37
*373 REGi_2_n36
*374 REGi_2_n35
*375 REGi_2_n34
*376 REGi_2_n33
*377 REGi_3_n62
*378 REGi_3_n61
*379 REGi_3_n60
*380 REGi_3_n59
*381 REGi_3_n58
*382 REGi_3_n57
*383 REGi_3_n56
*384 REGi_3_n55
*385 REGi_3_n54
*386 REGi_3_n53
*387 REGi_3_n52
*388 REGi_3_n51
*389 REGi_3_n50
*390 REGi_3_n49
*391 REGi_3_n48
*392 REGi_3_n47
*393 REGi_3_n46
*394 REGi_3_n45
*395 REGi_3_n44
*396 REGi_3_n43
*397 REGi_3_n42
*398 REGi_3_n41
*399 REGi_3_n40
*400 REGi_3_n39
*401 REGi_3_n38
*402 REGi_3_n37
*403 REGi_3_n36
*404 REGi_3_n35
*405 REGi_3_n34
*406 REGi_3_n33
*407 REGi_4_n62
*408 REGi_4_n61
*409 REGi_4_n60
*410 REGi_4_n59
*411 REGi_4_n58
*412 REGi_4_n57
*413 REGi_4_n56
*414 REGi_4_n55
*415 REGi_4_n54
*416 REGi_4_n53
*417 REGi_4_n52
*418 REGi_4_n51
*419 REGi_4_n50
*420 REGi_4_n49
*421 REGi_4_n48
*422 REGi_4_n47
*423 REGi_4_n46
*424 REGi_4_n45
*425 REGi_4_n44
*426 REGi_4_n43
*427 REGi_4_n42
*428 REGi_4_n41
*429 REGi_4_n40
*430 REGi_4_n39
*431 REGi_4_n38
*432 REGi_4_n37
*433 REGi_4_n36
*434 REGi_4_n35
*435 REGi_4_n34
*436 REGi_4_n33
*437 REGi_5_n62
*438 REGi_5_n61
*439 REGi_5_n60
*440 REGi_5_n59
*441 REGi_5_n58
*442 REGi_5_n57
*443 REGi_5_n56
*444 REGi_5_n55
*445 REGi_5_n54
*446 REGi_5_n53
*447 REGi_5_n52
*448 REGi_5_n51
*449 REGi_5_n50
*450 REGi_5_n49
*451 REGi_5_n48
*452 REGi_5_n47
*453 REGi_5_n46
*454 REGi_5_n45
*455 REGi_5_n44
*456 REGi_5_n43
*457 REGi_5_n42
*458 REGi_5_n41
*459 REGi_5_n40
*460 REGi_5_n39
*461 REGi_5_n38
*462 REGi_5_n37
*463 REGi_5_n36
*464 REGi_5_n35
*465 REGi_5_n34
*466 REGi_5_n33
*467 REGi_6_n62
*468 REGi_6_n61
*469 REGi_6_n60
*470 REGi_6_n59
*471 REGi_6_n58
*472 REGi_6_n57
*473 REGi_6_n56
*474 REGi_6_n55
*475 REGi_6_n54
*476 REGi_6_n53
*477 REGi_6_n52
*478 REGi_6_n51
*479 REGi_6_n50
*480 REGi_6_n49
*481 REGi_6_n48
*482 REGi_6_n47
*483 REGi_6_n46
*484 REGi_6_n45
*485 REGi_6_n44
*486 REGi_6_n43
*487 REGi_6_n42
*488 REGi_6_n41
*489 REGi_6_n40
*490 REGi_6_n39
*491 REGi_6_n38
*492 REGi_6_n37
*493 REGi_6_n36
*494 REGi_6_n35
*495 REGi_6_n34
*496 REGi_6_n33
*497 REGi_7_n62
*498 REGi_7_n61
*499 REGi_7_n60
*500 REGi_7_n59
*501 REGi_7_n58
*502 REGi_7_n57
*503 REGi_7_n56
*504 REGi_7_n55
*505 REGi_7_n54
*506 REGi_7_n53
*507 REGi_7_n52
*508 REGi_7_n51
*509 REGi_7_n50
*510 REGi_7_n49
*511 REGi_7_n48
*512 REGi_7_n47
*513 REGi_7_n46
*514 REGi_7_n45
*515 REGi_7_n44
*516 REGi_7_n43
*517 REGi_7_n42
*518 REGi_7_n41
*519 REGi_7_n40
*520 REGi_7_n39
*521 REGi_7_n38
*522 REGi_7_n37
*523 REGi_7_n36
*524 REGi_7_n35
*525 REGi_7_n34
*526 REGi_7_n33
*527 REGi_8_n62
*528 REGi_8_n61
*529 REGi_8_n60
*530 REGi_8_n59
*531 REGi_8_n58
*532 REGi_8_n57
*533 REGi_8_n56
*534 REGi_8_n55
*535 REGi_8_n54
*536 REGi_8_n53
*537 REGi_8_n52
*538 REGi_8_n51
*539 REGi_8_n50
*540 REGi_8_n49
*541 REGi_8_n48
*542 REGi_8_n47
*543 REGi_8_n46
*544 REGi_8_n45
*545 REGi_8_n44
*546 REGi_8_n43
*547 REGi_8_n42
*548 REGi_8_n41
*549 REGi_8_n40
*550 REGi_8_n39
*551 REGi_8_n38
*552 REGi_8_n37
*553 REGi_8_n36
*554 REGi_8_n35
*555 REGi_8_n34
*556 REGi_8_n33
*557 REGi_9_n62
*558 REGi_9_n61
*559 REGi_9_n60
*560 REGi_9_n59
*561 REGi_9_n58
*562 REGi_9_n57
*563 REGi_9_n56
*564 REGi_9_n55
*565 REGi_9_n54
*566 REGi_9_n53
*567 REGi_9_n52
*568 REGi_9_n51
*569 REGi_9_n50
*570 REGi_9_n49
*571 REGi_9_n48
*572 REGi_9_n47
*573 REGi_9_n46
*574 REGi_9_n45
*575 REGi_9_n44
*576 REGi_9_n43
*577 REGi_9_n42
*578 REGi_9_n41
*579 REGi_9_n40
*580 REGi_9_n39
*581 REGi_9_n38
*582 REGi_9_n37
*583 REGi_9_n36
*584 REGi_9_n35
*585 REGi_9_n34
*586 REGi_9_n33
*587 REGi_10_n62
*588 REGi_10_n61
*589 REGi_10_n60
*590 REGi_10_n59
*591 REGi_10_n58
*592 REGi_10_n57
*593 REGi_10_n56
*594 REGi_10_n55
*595 REGi_10_n54
*596 REGi_10_n53
*597 REGi_10_n52
*598 REGi_10_n51
*599 REGi_10_n50
*600 REGi_10_n49
*601 REGi_10_n48
*602 REGi_10_n47
*603 REGi_10_n46
*604 REGi_10_n45
*605 REGi_10_n44
*606 REGi_10_n43
*607 REGi_10_n42
*608 REGi_10_n41
*609 REGi_10_n40
*610 REGi_10_n39
*611 REGi_10_n38
*612 REGi_10_n37
*613 REGi_10_n36
*614 REGi_10_n35
*615 REGi_10_n34
*616 REGi_10_n33
*617 REGout_n54
*618 REGout_n53
*619 REGout_n51
*620 REGout_n50
*621 REGout_n49
*622 REGout_n48
*623 REGout_n47
*624 REGout_n46
*625 REGout_n45
*626 REGout_n44
*627 REGout_n43
*628 REGout_n42
*629 REGout_n41
*630 REGout_n34
*631 REGout_n33
*632 REGout_n31
*633 SH_r_0_
*634 mult_66_n404
*635 mult_66_n403
*636 mult_66_n402
*637 mult_66_n401
*638 mult_66_n400
*639 mult_66_n399
*640 mult_66_n398
*641 mult_66_n397
*642 mult_66_n396
*643 mult_66_n395
*644 mult_66_n394
*645 mult_66_n393
*646 mult_66_n392
*647 mult_66_n391
*648 mult_66_n390
*649 mult_66_n389
*650 mult_66_n388
*651 mult_66_n387
*652 mult_66_n386
*653 mult_66_n385
*654 mult_66_n384
*655 mult_66_n383
*656 mult_66_n382
*657 mult_66_n381
*658 mult_66_n380
*659 mult_66_n379
*660 mult_66_n378
*661 mult_66_n377
*662 mult_66_n376
*663 mult_66_n375
*664 mult_66_n374
*665 mult_66_n373
*666 mult_66_n372
*667 mult_66_n371
*668 mult_66_n370
*669 mult_66_n369
*670 mult_66_n368
*671 mult_66_n367
*672 mult_66_n366
*673 mult_66_n365
*674 mult_66_n364
*675 mult_66_n363
*676 mult_66_n362
*677 mult_66_n361
*678 mult_66_n360
*679 mult_66_n359
*680 mult_66_n358
*681 mult_66_n357
*682 mult_66_n356
*683 mult_66_n355
*684 mult_66_n354
*685 mult_66_n353
*686 mult_66_n352
*687 mult_66_n351
*688 mult_66_n350
*689 mult_66_n349
*690 mult_66_n348
*691 mult_66_n347
*692 mult_66_n346
*693 mult_66_n345
*694 mult_66_n344
*695 mult_66_n343
*696 mult_66_n342
*697 mult_66_n341
*698 mult_66_n340
*699 mult_66_n339
*700 mult_66_n338
*701 mult_66_n337
*702 mult_66_n336
*703 mult_66_n335
*704 mult_66_n334
*705 mult_66_n333
*706 mult_66_n332
*707 mult_66_n331
*708 mult_66_n330
*709 mult_66_n329
*710 mult_66_n328
*711 mult_66_n327
*712 mult_66_n326
*713 mult_66_n325
*714 mult_66_n324
*715 mult_66_n323
*716 mult_66_n322
*717 mult_66_n321
*718 mult_66_n320
*719 mult_66_n319
*720 mult_66_n318
*721 mult_66_n317
*722 mult_66_n316
*723 mult_66_n315
*724 mult_66_n314
*725 mult_66_n313
*726 mult_66_n312
*727 mult_66_n311
*728 mult_66_n310
*729 mult_66_n309
*730 mult_66_n308
*731 mult_66_n307
*732 mult_66_n306
*733 mult_66_n305
*734 mult_66_n304
*735 mult_66_n303
*736 mult_66_n302
*737 mult_66_n301
*738 mult_66_n300
*739 mult_66_n299
*740 mult_66_n298
*741 mult_66_n297
*742 mult_66_n296
*743 mult_66_n295
*744 mult_66_n294
*745 mult_66_n293
*746 mult_66_n292
*747 mult_66_n291
*748 mult_66_n157
*749 mult_66_n156
*750 mult_66_n155
*751 mult_66_n154
*752 mult_66_n153
*753 mult_66_n152
*754 mult_66_n151
*755 mult_66_n148
*756 mult_66_n147
*757 mult_66_n146
*758 mult_66_n145
*759 mult_66_n144
*760 mult_66_n143
*761 mult_66_n142
*762 mult_66_n140
*763 mult_66_n139
*764 mult_66_n138
*765 mult_66_n137
*766 mult_66_n136
*767 mult_66_n135
*768 mult_66_n134
*769 mult_66_n133
*770 mult_66_n132
*771 mult_66_n131
*772 mult_66_n129
*773 mult_66_n128
*774 mult_66_n127
*775 mult_66_n126
*776 mult_66_n124
*777 mult_66_n123
*778 mult_66_n122
*779 mult_66_n121
*780 mult_66_n119
*781 mult_66_n118
*782 mult_66_n117
*783 mult_66_n116
*784 mult_66_n115
*785 mult_66_n114
*786 mult_66_n113
*787 mult_66_n112
*788 mult_66_n111
*789 mult_66_n107
*790 mult_66_n106
*791 mult_66_n105
*792 mult_66_n90
*793 mult_66_n89
*794 mult_66_n88
*795 mult_66_n87
*796 mult_66_n86
*797 mult_66_n85
*798 mult_66_n84
*799 mult_66_n83
*800 mult_66_n82
*801 mult_66_n81
*802 mult_66_n80
*803 mult_66_n79
*804 mult_66_n78
*805 mult_66_n77
*806 mult_66_n76
*807 mult_66_n75
*808 mult_66_n74
*809 mult_66_n73
*810 mult_66_n72
*811 mult_66_n71
*812 mult_66_n70
*813 mult_66_n69
*814 mult_66_n68
*815 mult_66_n67
*816 mult_66_n66
*817 mult_66_n65
*818 mult_66_n64
*819 mult_66_n63
*820 mult_66_n62
*821 mult_66_n61
*822 mult_66_n60
*823 mult_66_n59
*824 mult_66_n58
*825 mult_66_n57
*826 mult_66_n56
*827 mult_66_n55
*828 mult_66_n54
*829 mult_66_n53
*830 mult_66_n52
*831 mult_66_n51
*832 mult_66_n50
*833 mult_66_n48
*834 mult_66_n47
*835 mult_66_n46
*836 mult_66_n45
*837 mult_66_n44
*838 mult_66_n43
*839 mult_66_n42
*840 mult_66_n41
*841 mult_66_n40
*842 mult_66_n39
*843 mult_66_n38
*844 mult_66_n37
*845 mult_66_n35
*846 mult_66_n34
*847 mult_66_n33
*848 mult_66_n32
*849 mult_66_n31
*850 mult_66_n30
*851 mult_66_n29
*852 mult_66_n28
*853 mult_66_n27
*854 mult_66_n25
*855 mult_66_n24
*856 mult_66_n23
*857 mult_66_n22
*858 mult_66_n21
*859 mult_66_n20
*860 mult_66_n8
*861 mult_66_n7
*862 mult_66_n6
*863 mult_66_n5
*864 mult_66_n4
*865 mult_66_n3
*866 mult_66_n2
*867 mult_73_G2_n404
*868 mult_73_G2_n403
*869 mult_73_G2_n402
*870 mult_73_G2_n401
*871 mult_73_G2_n400
*872 mult_73_G2_n399
*873 mult_73_G2_n398
*874 mult_73_G2_n397
*875 mult_73_G2_n396
*876 mult_73_G2_n395
*877 mult_73_G2_n394
*878 mult_73_G2_n393
*879 mult_73_G2_n392
*880 mult_73_G2_n391
*881 mult_73_G2_n390
*882 mult_73_G2_n389
*883 mult_73_G2_n388
*884 mult_73_G2_n387
*885 mult_73_G2_n386
*886 mult_73_G2_n385
*887 mult_73_G2_n384
*888 mult_73_G2_n383
*889 mult_73_G2_n382
*890 mult_73_G2_n381
*891 mult_73_G2_n380
*892 mult_73_G2_n379
*893 mult_73_G2_n378
*894 mult_73_G2_n377
*895 mult_73_G2_n376
*896 mult_73_G2_n375
*897 mult_73_G2_n374
*898 mult_73_G2_n373
*899 mult_73_G2_n372
*900 mult_73_G2_n371
*901 mult_73_G2_n370
*902 mult_73_G2_n369
*903 mult_73_G2_n368
*904 mult_73_G2_n367
*905 mult_73_G2_n366
*906 mult_73_G2_n365
*907 mult_73_G2_n364
*908 mult_73_G2_n363
*909 mult_73_G2_n362
*910 mult_73_G2_n361
*911 mult_73_G2_n360
*912 mult_73_G2_n359
*913 mult_73_G2_n358
*914 mult_73_G2_n357
*915 mult_73_G2_n356
*916 mult_73_G2_n355
*917 mult_73_G2_n354
*918 mult_73_G2_n353
*919 mult_73_G2_n352
*920 mult_73_G2_n351
*921 mult_73_G2_n350
*922 mult_73_G2_n349
*923 mult_73_G2_n348
*924 mult_73_G2_n347
*925 mult_73_G2_n346
*926 mult_73_G2_n345
*927 mult_73_G2_n344
*928 mult_73_G2_n343
*929 mult_73_G2_n342
*930 mult_73_G2_n341
*931 mult_73_G2_n340
*932 mult_73_G2_n339
*933 mult_73_G2_n338
*934 mult_73_G2_n337
*935 mult_73_G2_n336
*936 mult_73_G2_n335
*937 mult_73_G2_n334
*938 mult_73_G2_n333
*939 mult_73_G2_n332
*940 mult_73_G2_n331
*941 mult_73_G2_n330
*942 mult_73_G2_n329
*943 mult_73_G2_n328
*944 mult_73_G2_n327
*945 mult_73_G2_n326
*946 mult_73_G2_n325
*947 mult_73_G2_n324
*948 mult_73_G2_n323
*949 mult_73_G2_n322
*950 mult_73_G2_n321
*951 mult_73_G2_n320
*952 mult_73_G2_n319
*953 mult_73_G2_n318
*954 mult_73_G2_n317
*955 mult_73_G2_n316
*956 mult_73_G2_n315
*957 mult_73_G2_n314
*958 mult_73_G2_n313
*959 mult_73_G2_n312
*960 mult_73_G2_n311
*961 mult_73_G2_n310
*962 mult_73_G2_n309
*963 mult_73_G2_n308
*964 mult_73_G2_n307
*965 mult_73_G2_n306
*966 mult_73_G2_n305
*967 mult_73_G2_n304
*968 mult_73_G2_n303
*969 mult_73_G2_n302
*970 mult_73_G2_n301
*971 mult_73_G2_n300
*972 mult_73_G2_n299
*973 mult_73_G2_n298
*974 mult_73_G2_n297
*975 mult_73_G2_n296
*976 mult_73_G2_n295
*977 mult_73_G2_n294
*978 mult_73_G2_n293
*979 mult_73_G2_n292
*980 mult_73_G2_n291
*981 mult_73_G2_n157
*982 mult_73_G2_n156
*983 mult_73_G2_n155
*984 mult_73_G2_n154
*985 mult_73_G2_n153
*986 mult_73_G2_n152
*987 mult_73_G2_n151
*988 mult_73_G2_n148
*989 mult_73_G2_n147
*990 mult_73_G2_n146
*991 mult_73_G2_n145
*992 mult_73_G2_n144
*993 mult_73_G2_n143
*994 mult_73_G2_n142
*995 mult_73_G2_n140
*996 mult_73_G2_n139
*997 mult_73_G2_n138
*998 mult_73_G2_n137
*999 mult_73_G2_n136
*1000 mult_73_G2_n135
*1001 mult_73_G2_n134
*1002 mult_73_G2_n133
*1003 mult_73_G2_n132
*1004 mult_73_G2_n131
*1005 mult_73_G2_n129
*1006 mult_73_G2_n128
*1007 mult_73_G2_n127
*1008 mult_73_G2_n126
*1009 mult_73_G2_n124
*1010 mult_73_G2_n123
*1011 mult_73_G2_n122
*1012 mult_73_G2_n121
*1013 mult_73_G2_n119
*1014 mult_73_G2_n118
*1015 mult_73_G2_n117
*1016 mult_73_G2_n116
*1017 mult_73_G2_n115
*1018 mult_73_G2_n114
*1019 mult_73_G2_n113
*1020 mult_73_G2_n112
*1021 mult_73_G2_n111
*1022 mult_73_G2_n107
*1023 mult_73_G2_n106
*1024 mult_73_G2_n105
*1025 mult_73_G2_n90
*1026 mult_73_G2_n89
*1027 mult_73_G2_n88
*1028 mult_73_G2_n87
*1029 mult_73_G2_n86
*1030 mult_73_G2_n85
*1031 mult_73_G2_n84
*1032 mult_73_G2_n83
*1033 mult_73_G2_n82
*1034 mult_73_G2_n81
*1035 mult_73_G2_n80
*1036 mult_73_G2_n79
*1037 mult_73_G2_n78
*1038 mult_73_G2_n77
*1039 mult_73_G2_n76
*1040 mult_73_G2_n75
*1041 mult_73_G2_n74
*1042 mult_73_G2_n73
*1043 mult_73_G2_n72
*1044 mult_73_G2_n71
*1045 mult_73_G2_n70
*1046 mult_73_G2_n69
*1047 mult_73_G2_n68
*1048 mult_73_G2_n67
*1049 mult_73_G2_n66
*1050 mult_73_G2_n65
*1051 mult_73_G2_n64
*1052 mult_73_G2_n63
*1053 mult_73_G2_n62
*1054 mult_73_G2_n61
*1055 mult_73_G2_n60
*1056 mult_73_G2_n59
*1057 mult_73_G2_n58
*1058 mult_73_G2_n57
*1059 mult_73_G2_n56
*1060 mult_73_G2_n55
*1061 mult_73_G2_n54
*1062 mult_73_G2_n53
*1063 mult_73_G2_n52
*1064 mult_73_G2_n51
*1065 mult_73_G2_n50
*1066 mult_73_G2_n48
*1067 mult_73_G2_n47
*1068 mult_73_G2_n46
*1069 mult_73_G2_n45
*1070 mult_73_G2_n44
*1071 mult_73_G2_n43
*1072 mult_73_G2_n42
*1073 mult_73_G2_n41
*1074 mult_73_G2_n40
*1075 mult_73_G2_n39
*1076 mult_73_G2_n38
*1077 mult_73_G2_n37
*1078 mult_73_G2_n35
*1079 mult_73_G2_n34
*1080 mult_73_G2_n33
*1081 mult_73_G2_n32
*1082 mult_73_G2_n31
*1083 mult_73_G2_n30
*1084 mult_73_G2_n29
*1085 mult_73_G2_n28
*1086 mult_73_G2_n27
*1087 mult_73_G2_n25
*1088 mult_73_G2_n24
*1089 mult_73_G2_n23
*1090 mult_73_G2_n22
*1091 mult_73_G2_n21
*1092 mult_73_G2_n20
*1093 mult_73_G2_n8
*1094 mult_73_G2_n7
*1095 mult_73_G2_n6
*1096 mult_73_G2_n5
*1097 mult_73_G2_n4
*1098 mult_73_G2_n3
*1099 mult_73_G2_n2
*1100 mult_73_G3_n404
*1101 mult_73_G3_n403
*1102 mult_73_G3_n402
*1103 mult_73_G3_n401
*1104 mult_73_G3_n400
*1105 mult_73_G3_n399
*1106 mult_73_G3_n398
*1107 mult_73_G3_n397
*1108 mult_73_G3_n396
*1109 mult_73_G3_n395
*1110 mult_73_G3_n394
*1111 mult_73_G3_n393
*1112 mult_73_G3_n392
*1113 mult_73_G3_n391
*1114 mult_73_G3_n390
*1115 mult_73_G3_n389
*1116 mult_73_G3_n388
*1117 mult_73_G3_n387
*1118 mult_73_G3_n386
*1119 mult_73_G3_n385
*1120 mult_73_G3_n384
*1121 mult_73_G3_n383
*1122 mult_73_G3_n382
*1123 mult_73_G3_n381
*1124 mult_73_G3_n380
*1125 mult_73_G3_n379
*1126 mult_73_G3_n378
*1127 mult_73_G3_n377
*1128 mult_73_G3_n376
*1129 mult_73_G3_n375
*1130 mult_73_G3_n374
*1131 mult_73_G3_n373
*1132 mult_73_G3_n372
*1133 mult_73_G3_n371
*1134 mult_73_G3_n370
*1135 mult_73_G3_n369
*1136 mult_73_G3_n368
*1137 mult_73_G3_n367
*1138 mult_73_G3_n366
*1139 mult_73_G3_n365
*1140 mult_73_G3_n364
*1141 mult_73_G3_n363
*1142 mult_73_G3_n362
*1143 mult_73_G3_n361
*1144 mult_73_G3_n360
*1145 mult_73_G3_n359
*1146 mult_73_G3_n358
*1147 mult_73_G3_n357
*1148 mult_73_G3_n356
*1149 mult_73_G3_n355
*1150 mult_73_G3_n354
*1151 mult_73_G3_n353
*1152 mult_73_G3_n352
*1153 mult_73_G3_n351
*1154 mult_73_G3_n350
*1155 mult_73_G3_n349
*1156 mult_73_G3_n348
*1157 mult_73_G3_n347
*1158 mult_73_G3_n346
*1159 mult_73_G3_n345
*1160 mult_73_G3_n344
*1161 mult_73_G3_n343
*1162 mult_73_G3_n342
*1163 mult_73_G3_n341
*1164 mult_73_G3_n340
*1165 mult_73_G3_n339
*1166 mult_73_G3_n338
*1167 mult_73_G3_n337
*1168 mult_73_G3_n336
*1169 mult_73_G3_n335
*1170 mult_73_G3_n334
*1171 mult_73_G3_n333
*1172 mult_73_G3_n332
*1173 mult_73_G3_n331
*1174 mult_73_G3_n330
*1175 mult_73_G3_n329
*1176 mult_73_G3_n328
*1177 mult_73_G3_n327
*1178 mult_73_G3_n326
*1179 mult_73_G3_n325
*1180 mult_73_G3_n324
*1181 mult_73_G3_n323
*1182 mult_73_G3_n322
*1183 mult_73_G3_n321
*1184 mult_73_G3_n320
*1185 mult_73_G3_n319
*1186 mult_73_G3_n318
*1187 mult_73_G3_n317
*1188 mult_73_G3_n316
*1189 mult_73_G3_n315
*1190 mult_73_G3_n314
*1191 mult_73_G3_n313
*1192 mult_73_G3_n312
*1193 mult_73_G3_n311
*1194 mult_73_G3_n310
*1195 mult_73_G3_n309
*1196 mult_73_G3_n308
*1197 mult_73_G3_n307
*1198 mult_73_G3_n306
*1199 mult_73_G3_n305
*1200 mult_73_G3_n304
*1201 mult_73_G3_n303
*1202 mult_73_G3_n302
*1203 mult_73_G3_n301
*1204 mult_73_G3_n300
*1205 mult_73_G3_n299
*1206 mult_73_G3_n298
*1207 mult_73_G3_n297
*1208 mult_73_G3_n296
*1209 mult_73_G3_n295
*1210 mult_73_G3_n294
*1211 mult_73_G3_n293
*1212 mult_73_G3_n292
*1213 mult_73_G3_n291
*1214 mult_73_G3_n157
*1215 mult_73_G3_n156
*1216 mult_73_G3_n155
*1217 mult_73_G3_n154
*1218 mult_73_G3_n153
*1219 mult_73_G3_n152
*1220 mult_73_G3_n151
*1221 mult_73_G3_n148
*1222 mult_73_G3_n147
*1223 mult_73_G3_n146
*1224 mult_73_G3_n145
*1225 mult_73_G3_n144
*1226 mult_73_G3_n143
*1227 mult_73_G3_n142
*1228 mult_73_G3_n140
*1229 mult_73_G3_n139
*1230 mult_73_G3_n138
*1231 mult_73_G3_n137
*1232 mult_73_G3_n136
*1233 mult_73_G3_n135
*1234 mult_73_G3_n134
*1235 mult_73_G3_n133
*1236 mult_73_G3_n132
*1237 mult_73_G3_n131
*1238 mult_73_G3_n129
*1239 mult_73_G3_n128
*1240 mult_73_G3_n127
*1241 mult_73_G3_n126
*1242 mult_73_G3_n124
*1243 mult_73_G3_n123
*1244 mult_73_G3_n122
*1245 mult_73_G3_n121
*1246 mult_73_G3_n119
*1247 mult_73_G3_n118
*1248 mult_73_G3_n117
*1249 mult_73_G3_n116
*1250 mult_73_G3_n115
*1251 mult_73_G3_n114
*1252 mult_73_G3_n113
*1253 mult_73_G3_n112
*1254 mult_73_G3_n111
*1255 mult_73_G3_n107
*1256 mult_73_G3_n106
*1257 mult_73_G3_n105
*1258 mult_73_G3_n90
*1259 mult_73_G3_n89
*1260 mult_73_G3_n88
*1261 mult_73_G3_n87
*1262 mult_73_G3_n86
*1263 mult_73_G3_n85
*1264 mult_73_G3_n84
*1265 mult_73_G3_n83
*1266 mult_73_G3_n82
*1267 mult_73_G3_n81
*1268 mult_73_G3_n80
*1269 mult_73_G3_n79
*1270 mult_73_G3_n78
*1271 mult_73_G3_n77
*1272 mult_73_G3_n76
*1273 mult_73_G3_n75
*1274 mult_73_G3_n74
*1275 mult_73_G3_n73
*1276 mult_73_G3_n72
*1277 mult_73_G3_n71
*1278 mult_73_G3_n70
*1279 mult_73_G3_n69
*1280 mult_73_G3_n68
*1281 mult_73_G3_n67
*1282 mult_73_G3_n66
*1283 mult_73_G3_n65
*1284 mult_73_G3_n64
*1285 mult_73_G3_n63
*1286 mult_73_G3_n62
*1287 mult_73_G3_n61
*1288 mult_73_G3_n60
*1289 mult_73_G3_n59
*1290 mult_73_G3_n58
*1291 mult_73_G3_n57
*1292 mult_73_G3_n56
*1293 mult_73_G3_n55
*1294 mult_73_G3_n54
*1295 mult_73_G3_n53
*1296 mult_73_G3_n52
*1297 mult_73_G3_n51
*1298 mult_73_G3_n50
*1299 mult_73_G3_n48
*1300 mult_73_G3_n47
*1301 mult_73_G3_n46
*1302 mult_73_G3_n45
*1303 mult_73_G3_n44
*1304 mult_73_G3_n43
*1305 mult_73_G3_n42
*1306 mult_73_G3_n41
*1307 mult_73_G3_n40
*1308 mult_73_G3_n39
*1309 mult_73_G3_n38
*1310 mult_73_G3_n37
*1311 mult_73_G3_n35
*1312 mult_73_G3_n34
*1313 mult_73_G3_n33
*1314 mult_73_G3_n32
*1315 mult_73_G3_n31
*1316 mult_73_G3_n30
*1317 mult_73_G3_n29
*1318 mult_73_G3_n28
*1319 mult_73_G3_n27
*1320 mult_73_G3_n25
*1321 mult_73_G3_n24
*1322 mult_73_G3_n23
*1323 mult_73_G3_n22
*1324 mult_73_G3_n21
*1325 mult_73_G3_n20
*1326 mult_73_G3_n8
*1327 mult_73_G3_n7
*1328 mult_73_G3_n6
*1329 mult_73_G3_n5
*1330 mult_73_G3_n4
*1331 mult_73_G3_n3
*1332 mult_73_G3_n2
*1333 mult_73_G6_n404
*1334 mult_73_G6_n403
*1335 mult_73_G6_n402
*1336 mult_73_G6_n401
*1337 mult_73_G6_n400
*1338 mult_73_G6_n399
*1339 mult_73_G6_n398
*1340 mult_73_G6_n397
*1341 mult_73_G6_n396
*1342 mult_73_G6_n395
*1343 mult_73_G6_n394
*1344 mult_73_G6_n393
*1345 mult_73_G6_n392
*1346 mult_73_G6_n391
*1347 mult_73_G6_n390
*1348 mult_73_G6_n389
*1349 mult_73_G6_n388
*1350 mult_73_G6_n387
*1351 mult_73_G6_n386
*1352 mult_73_G6_n385
*1353 mult_73_G6_n384
*1354 mult_73_G6_n383
*1355 mult_73_G6_n382
*1356 mult_73_G6_n381
*1357 mult_73_G6_n380
*1358 mult_73_G6_n379
*1359 mult_73_G6_n378
*1360 mult_73_G6_n377
*1361 mult_73_G6_n376
*1362 mult_73_G6_n375
*1363 mult_73_G6_n374
*1364 mult_73_G6_n373
*1365 mult_73_G6_n372
*1366 mult_73_G6_n371
*1367 mult_73_G6_n370
*1368 mult_73_G6_n369
*1369 mult_73_G6_n368
*1370 mult_73_G6_n367
*1371 mult_73_G6_n366
*1372 mult_73_G6_n365
*1373 mult_73_G6_n364
*1374 mult_73_G6_n363
*1375 mult_73_G6_n362
*1376 mult_73_G6_n361
*1377 mult_73_G6_n360
*1378 mult_73_G6_n359
*1379 mult_73_G6_n358
*1380 mult_73_G6_n357
*1381 mult_73_G6_n356
*1382 mult_73_G6_n355
*1383 mult_73_G6_n354
*1384 mult_73_G6_n353
*1385 mult_73_G6_n352
*1386 mult_73_G6_n351
*1387 mult_73_G6_n350
*1388 mult_73_G6_n349
*1389 mult_73_G6_n348
*1390 mult_73_G6_n347
*1391 mult_73_G6_n346
*1392 mult_73_G6_n345
*1393 mult_73_G6_n344
*1394 mult_73_G6_n343
*1395 mult_73_G6_n342
*1396 mult_73_G6_n341
*1397 mult_73_G6_n340
*1398 mult_73_G6_n339
*1399 mult_73_G6_n338
*1400 mult_73_G6_n337
*1401 mult_73_G6_n336
*1402 mult_73_G6_n335
*1403 mult_73_G6_n334
*1404 mult_73_G6_n333
*1405 mult_73_G6_n332
*1406 mult_73_G6_n331
*1407 mult_73_G6_n330
*1408 mult_73_G6_n329
*1409 mult_73_G6_n328
*1410 mult_73_G6_n327
*1411 mult_73_G6_n326
*1412 mult_73_G6_n325
*1413 mult_73_G6_n324
*1414 mult_73_G6_n323
*1415 mult_73_G6_n322
*1416 mult_73_G6_n321
*1417 mult_73_G6_n320
*1418 mult_73_G6_n319
*1419 mult_73_G6_n318
*1420 mult_73_G6_n317
*1421 mult_73_G6_n316
*1422 mult_73_G6_n315
*1423 mult_73_G6_n314
*1424 mult_73_G6_n313
*1425 mult_73_G6_n312
*1426 mult_73_G6_n311
*1427 mult_73_G6_n310
*1428 mult_73_G6_n309
*1429 mult_73_G6_n308
*1430 mult_73_G6_n307
*1431 mult_73_G6_n306
*1432 mult_73_G6_n305
*1433 mult_73_G6_n304
*1434 mult_73_G6_n303
*1435 mult_73_G6_n302
*1436 mult_73_G6_n301
*1437 mult_73_G6_n300
*1438 mult_73_G6_n299
*1439 mult_73_G6_n298
*1440 mult_73_G6_n297
*1441 mult_73_G6_n296
*1442 mult_73_G6_n295
*1443 mult_73_G6_n294
*1444 mult_73_G6_n293
*1445 mult_73_G6_n292
*1446 mult_73_G6_n291
*1447 mult_73_G6_n157
*1448 mult_73_G6_n156
*1449 mult_73_G6_n155
*1450 mult_73_G6_n154
*1451 mult_73_G6_n153
*1452 mult_73_G6_n152
*1453 mult_73_G6_n151
*1454 mult_73_G6_n148
*1455 mult_73_G6_n147
*1456 mult_73_G6_n146
*1457 mult_73_G6_n145
*1458 mult_73_G6_n144
*1459 mult_73_G6_n143
*1460 mult_73_G6_n142
*1461 mult_73_G6_n140
*1462 mult_73_G6_n139
*1463 mult_73_G6_n138
*1464 mult_73_G6_n137
*1465 mult_73_G6_n136
*1466 mult_73_G6_n135
*1467 mult_73_G6_n134
*1468 mult_73_G6_n133
*1469 mult_73_G6_n132
*1470 mult_73_G6_n131
*1471 mult_73_G6_n129
*1472 mult_73_G6_n128
*1473 mult_73_G6_n127
*1474 mult_73_G6_n126
*1475 mult_73_G6_n124
*1476 mult_73_G6_n123
*1477 mult_73_G6_n122
*1478 mult_73_G6_n121
*1479 mult_73_G6_n119
*1480 mult_73_G6_n118
*1481 mult_73_G6_n117
*1482 mult_73_G6_n116
*1483 mult_73_G6_n115
*1484 mult_73_G6_n114
*1485 mult_73_G6_n113
*1486 mult_73_G6_n112
*1487 mult_73_G6_n111
*1488 mult_73_G6_n107
*1489 mult_73_G6_n106
*1490 mult_73_G6_n105
*1491 mult_73_G6_n90
*1492 mult_73_G6_n89
*1493 mult_73_G6_n88
*1494 mult_73_G6_n87
*1495 mult_73_G6_n86
*1496 mult_73_G6_n85
*1497 mult_73_G6_n84
*1498 mult_73_G6_n83
*1499 mult_73_G6_n82
*1500 mult_73_G6_n81
*1501 mult_73_G6_n80
*1502 mult_73_G6_n79
*1503 mult_73_G6_n78
*1504 mult_73_G6_n77
*1505 mult_73_G6_n76
*1506 mult_73_G6_n75
*1507 mult_73_G6_n74
*1508 mult_73_G6_n73
*1509 mult_73_G6_n72
*1510 mult_73_G6_n71
*1511 mult_73_G6_n70
*1512 mult_73_G6_n69
*1513 mult_73_G6_n68
*1514 mult_73_G6_n67
*1515 mult_73_G6_n66
*1516 mult_73_G6_n65
*1517 mult_73_G6_n64
*1518 mult_73_G6_n63
*1519 mult_73_G6_n62
*1520 mult_73_G6_n61
*1521 mult_73_G6_n60
*1522 mult_73_G6_n59
*1523 mult_73_G6_n58
*1524 mult_73_G6_n57
*1525 mult_73_G6_n56
*1526 mult_73_G6_n55
*1527 mult_73_G6_n54
*1528 mult_73_G6_n53
*1529 mult_73_G6_n52
*1530 mult_73_G6_n51
*1531 mult_73_G6_n50
*1532 mult_73_G6_n48
*1533 mult_73_G6_n47
*1534 mult_73_G6_n46
*1535 mult_73_G6_n45
*1536 mult_73_G6_n44
*1537 mult_73_G6_n43
*1538 mult_73_G6_n42
*1539 mult_73_G6_n41
*1540 mult_73_G6_n40
*1541 mult_73_G6_n39
*1542 mult_73_G6_n38
*1543 mult_73_G6_n37
*1544 mult_73_G6_n35
*1545 mult_73_G6_n34
*1546 mult_73_G6_n33
*1547 mult_73_G6_n32
*1548 mult_73_G6_n31
*1549 mult_73_G6_n30
*1550 mult_73_G6_n29
*1551 mult_73_G6_n28
*1552 mult_73_G6_n27
*1553 mult_73_G6_n25
*1554 mult_73_G6_n24
*1555 mult_73_G6_n23
*1556 mult_73_G6_n22
*1557 mult_73_G6_n21
*1558 mult_73_G6_n20
*1559 mult_73_G6_n8
*1560 mult_73_G6_n7
*1561 mult_73_G6_n6
*1562 mult_73_G6_n5
*1563 mult_73_G6_n4
*1564 mult_73_G6_n3
*1565 mult_73_G6_n2
*1566 mult_73_G8_n404
*1567 mult_73_G8_n403
*1568 mult_73_G8_n402
*1569 mult_73_G8_n401
*1570 mult_73_G8_n400
*1571 mult_73_G8_n399
*1572 mult_73_G8_n398
*1573 mult_73_G8_n397
*1574 mult_73_G8_n396
*1575 mult_73_G8_n395
*1576 mult_73_G8_n394
*1577 mult_73_G8_n393
*1578 mult_73_G8_n392
*1579 mult_73_G8_n391
*1580 mult_73_G8_n390
*1581 mult_73_G8_n389
*1582 mult_73_G8_n388
*1583 mult_73_G8_n387
*1584 mult_73_G8_n386
*1585 mult_73_G8_n385
*1586 mult_73_G8_n384
*1587 mult_73_G8_n383
*1588 mult_73_G8_n382
*1589 mult_73_G8_n381
*1590 mult_73_G8_n380
*1591 mult_73_G8_n379
*1592 mult_73_G8_n378
*1593 mult_73_G8_n377
*1594 mult_73_G8_n376
*1595 mult_73_G8_n375
*1596 mult_73_G8_n374
*1597 mult_73_G8_n373
*1598 mult_73_G8_n372
*1599 mult_73_G8_n371
*1600 mult_73_G8_n370
*1601 mult_73_G8_n369
*1602 mult_73_G8_n368
*1603 mult_73_G8_n367
*1604 mult_73_G8_n366
*1605 mult_73_G8_n365
*1606 mult_73_G8_n364